Version 4
SHEET 1 1072 680
WIRE 704 -80 704 -112
WIRE 704 64 704 -16
WIRE 400 112 400 48
WIRE 368 128 240 128
WIRE 960 128 960 64
WIRE 48 144 48 48
WIRE 544 144 432 144
WIRE 640 144 624 144
WIRE 656 144 640 144
WIRE 368 160 320 160
WIRE 640 192 640 144
WIRE 400 208 400 176
WIRE 960 256 960 208
WIRE 48 272 48 224
WIRE 240 272 240 208
WIRE 640 288 640 272
WIRE 704 288 704 160
WIRE 320 304 320 160
WIRE 320 416 320 384
FLAG 48 272 0
FLAG 960 256 0
FLAG 400 208 0
FLAG 48 48 5V
FLAG 400 48 5V
FLAG 960 64 12V
FLAG 240 272 0
FLAG 240 48 5V
FLAG 320 416 0
FLAG 640 288 0
FLAG 704 288 0
FLAG 704 -112 12V
SYMBOL voltage 48 128 R0
WINDOW 123 0 0 Left 0
WINDOW 39 0 0 Left 0
SYMATTR InstName Arduino
SYMATTR Value 5
SYMBOL voltage 960 112 R0
WINDOW 123 0 0 Left 0
WINDOW 39 0 0 Left 0
SYMATTR InstName Battery
SYMATTR Value 12
SYMBOL res 224 32 R0
SYMATTR InstName R1
SYMATTR Value 50k
SYMBOL res 224 112 R0
SYMATTR InstName R2
SYMATTR Value 5k
SYMBOL voltage 320 288 R0
WINDOW 123 0 0 Left 0
WINDOW 39 0 0 Left 0
SYMATTR InstName V1
SYMATTR Value SINE(2.5 5 1 0 0 0 10)
SYMBOL nmos 656 64 R0
SYMATTR InstName M1
SYMBOL res 640 128 R90
WINDOW 0 0 56 VBottom 2
WINDOW 3 32 56 VTop 2
SYMATTR InstName R3
SYMATTR Value 330
SYMBOL res 656 288 R180
WINDOW 0 36 76 Left 2
WINDOW 3 36 40 Left 2
SYMATTR InstName R4
SYMATTR Value 10k
SYMBOL LED 688 -80 R0
SYMATTR InstName D1
SYMBOL OpAmps\\MAX4230 400 80 R0
SYMATTR InstName U2
TEXT 14 440 Left 2 !.tran 10
